[TITLE]
;;Project Title/Notes

[OPTIONS]
;;Option             Value
FLOW_UNITS           CFS
INFILTRATION         GREEN_AMPT
FLOW_ROUTING         DYNWAVE
LINK_OFFSETS         DEPTH
MIN_SLOPE            0
ALLOW_PONDING        NO
SKIP_STEADY_STATE    NO

START_DATE           07/02/2025
START_TIME           00:15:00
REPORT_START_DATE    07/02/2025
REPORT_START_TIME    09:55:00
END_DATE             07/02/2025
END_TIME             10:00:00
SWEEP_START          01/01
SWEEP_END            12/31
DRY_DAYS             0
REPORT_STEP          00:20:00
WET_STEP             00:20:00
DRY_STEP             00:20:00
ROUTING_STEP         0:20:00 
RULE_STEP            00:00:00

INERTIAL_DAMPING     PARTIAL
NORMAL_FLOW_LIMITED  BOTH
FORCE_MAIN_EQUATION  H-W
VARIABLE_STEP        0.75
LENGTHENING_STEP     0
MIN_SURFAREA         12.566
MAX_TRIALS           8
HEAD_TOLERANCE       0.005
SYS_FLOW_TOL         5
LAT_FLOW_TOL         5
MINIMUM_STEP         0.5
THREADS              4

[EVAPORATION]
;;Data Source    Parameters
;;-------------- ----------------
CONSTANT         0.0
DRY_ONLY         NO

[RAINGAGES]
;;Name           Format    Interval SCF      Source    
;;-------------- --------- ------ ------ ----------
Raingage1        INTENSITY 0:05     1.0      TIMESERIES TS1             

[SUBCATCHMENTS]
;;Name           Rain Gage        Outlet           Area     %Imperv  Width    %Slope   CurbLen  SnowPack        
;;-------------- ---------------- ---------------- -------- -------- -------- -------- -------- ----------------
S1               Raingage1        2042             5.034785 13.041   959.888  7.31     0                        
S10              Raingage1        199              25.408175 11.07    2213.56  11.27    0                        
S11              Raingage1        856              33.611303 17.64    2928.217 8.9      0                        
S12              Raingage1        1012             5.645632 53.315   500      9.62     0                        
S13              Raingage1        WVS247           70.150671 2.262    6111.526 19.51    0                        
S14              Raingage1        886              9.531108 25.558   830.35   18.67    0                        
S15              Raingage1        584              13.034985 18.284   1135.5   6.95     0                        
S16              Raingage1        228              18.370767 19.6     1600.5   7.91     0                        
S17              Raingage1        480              8.815243 21.678   767.984  10.49    0                        
S18              Raingage1        132              7.377254 8.336    642.706  8.14     0                        
S19              Raingage1        1015             32.286674 47.047   2812.815 7.3      0                        
S2               Raingage1        614              13.496596 45.536   1175.824 9.59     0                        
S20              Raingage1        154              28.117248 35.75    2449.575 6.69     0                        
S21              Raingage1        171              32.060934 35.305   2793.149 6.84     0                        
S22              Raingage1        189              16.285242 29.271   1418.77  8.9      0                        
S23              Raingage1        162              50.981416 31.471   4441.501 6.75     0                        
S24              Raingage1        204              42.015226 34.054   3660.366 6.03     0                        
S25              Raingage1        340              19.502812 15.649   1700     12.27    0                        
S26              Raingage1        4                98.629921 5.466    8592.639 22.31    0                        
S27              Raingage1        point4           144.36118 0.371    12576.75 20.34    0                        
S28              Raingage1        50000            15.459348 9.373    1346.818 16.36    0                        
S29              Raingage1        98               15.259261 5.667    1590.138 15.21    0                        
S3               Raingage1        WVS215           21.431694 12.673   1867.129 22.71    0                        
S30              Raingage1        point14          25.551572 2.848    2226.053 23.62    0                        
S31              Raingage1        734              16.437535 11.089   1432.038 11.75    0                        
S32              Raingage1        692              14.110748 44.944   1229.328 18.2     0                        
S33              Raingage1        682              4.783565 15.929   416.744  11.63    0                        
S34              Raingage1        767              4.838541 41.955   500      9.35     0                        
S35              Raingage1        802              7.722974 52.298   680      5.51     0                        
S36              Raingage1        2095             8.413645 50.168   735      5.41     0                        
S37              Raingage1        891              9.574759 25.077   834.153  16.83    0                        
S38              Raingage1        701              21.428729 36.226   1866.871 12.93    0                        
S39              Raingage1        6010             23.126211 9.989    2014.756 22.24    0                        
S4               Raingage1        543              19.3758  13.945   1688.02  13.76    0                        
S40              Raingage1        30005            4.720872 51.453   500      6.35     0                        
S41              Raingage1        50004            11.338256 6.791    987.789  15.88    0                        
S42              Raingage1        339              3.962278 21.2     500      7.2      0                        
S43              Raingage1        341              8.646856 30.682   753.314  6.65     0                        
S44              Raingage1        WVS216B          23.432642 17.116   2041.452 7.37     0                        
S45              Raingage1        836              31.851983 48.216   2774.945 4.99     0                        
S46              Raingage1        11003            42.220366 33.11    3678.238 8.65     0                        
S47              Raingage1        984              5.921953 18.487   515.952  11.59    0                        
S48              Raingage1        541              6.098778 58.537   531.326  7.13     0                        
S49              Raingage1        523              9.751382 55.275   850      5.25     0                        
S5               Raingage1        214              19.280311 36.126   1680     10.77    0                        
S50              Raingage1        545              14.711967 9.325    1281.707 16.41    0                        
S51              Raingage1        622              3.758097 38.556   500      16.45    0                        
S52              Raingage1        6002             2.449583 48.009   500      9.1      0                        
S53              Raingage1        2044             2.293955 19.225   580.013  3.71     0                        
S54              Raingage1        17               4.992202 1.263    500      4.79     0                        
S55              Raingage1        559              19.513984 8.89     1700.058 20.03    0                        
S56              Raingage1        658              5.064027 14.37    441.178  5.84     0                        
S57              Raingage1        656              2.899783 19.18    252.629  12.41    0                        
S58              Raingage1        1007             6.955114 13.315   1187.306 6.15     0                        
S59              Raingage1        741              4.610875 12.116   401.699  13.28    0                        
S6               Raingage1        966              2.656154 12.083   559.623  12.59    0                        
S60              Raingage1        905              13.627049 40.376   1187.189 8.1      0                        
S61              Raingage1        906              2.930291 52.555   500      5.01     0                        
S62              Raingage1        J2               2.196576 30.274   500      13       0                        
S63              Raingage1        8072             5.786864 55.643   505      6.7      0                        
S64              Raingage1        8080             4.20422  52.447   500      7.62     0                        
S65              Raingage1        921              6.855303 44.929   600      13.45    0                        
S66              Raingage1        838              4.735414 33.852   500      15.86    0                        
S67              Raingage1        21               2.253421 41.625   500      11.79    0                        
S68              Raingage1        2094             2.760249 50.974   500      6.39     0                        
S69              Raingage1        848              15.108929 21.218   1316.29  8.28     0                        
S7               Raingage1        961              3.087002 18.491   408.574  5.38     0                        
S70              Raingage1        840              3.519287 43.56    500      8.94     0                        
S71              Raingage1        839              2.797009 53.557   500      9.32     0                        
S72              Raingage1        2101             3.213001 54.249   500      5.98     0                        
S73              Raingage1        781              2.599059 46.054   500      12.66    0                        
S74              Raingage1        723              7.538932 58.1     657      7.8      0                        
S8               Raingage1        983              7.705823 21.35    679      10.8     0                        
S9               Raingage1        89               74.308843 5.608    6473.786 12.68    0                        

[SUBAREAS]
;;Subcatchment   N-Imperv   N-Perv     S-Imperv   S-Perv     PctZero    RouteTo    PctRouted 
;;-------------- ---------- ---------- ---------- ---------- ---------- ---------- ----------
S1               0.01       0.1        0.05       0.5        25         OUTLET    
S10              0.01       0.1        0.05       0.5        25         OUTLET    
S11              0.01       0.1        0.05       0.5        25         OUTLET    
S12              0.01       0.1        0.05       0.5        25         OUTLET    
S13              0.01       0.1        0.05       0.5        25         OUTLET    
S14              0.01       0.1        0.05       0.5        25         OUTLET    
S15              0.01       0.1        0.05       0.5        25         OUTLET    
S16              0.01       0.1        0.05       0.5        25         OUTLET    
S17              0.01       0.1        0.05       0.5        25         OUTLET    
S18              0.01       0.1        0.05       0.5        25         OUTLET    
S19              0.01       0.1        0.05       0.5        25         OUTLET    
S2               0.01       0.1        0.05       0.5        25         OUTLET    
S20              0.01       0.1        0.05       0.5        25         OUTLET    
S21              0.01       0.1        0.05       0.5        25         OUTLET    
S22              0.01       0.1        0.05       0.5        25         OUTLET    
S23              0.01       0.1        0.05       0.5        25         OUTLET    
S24              0.01       0.1        0.05       0.5        25         OUTLET    
S25              0.01       0.1        0.05       0.5        25         OUTLET    
S26              0.01       0.1        0.05       0.5        25         OUTLET    
S27              0.01       0.1        0.05       0.5        25         OUTLET    
S28              0.01       0.1        0.05       0.5        25         OUTLET    
S29              0.01       0.1        0.05       0.5        25         OUTLET    
S3               0.01       0.1        0.05       0.5        25         OUTLET    
S30              0.01       0.1        0.05       0.5        25         OUTLET    
S31              0.01       0.1        0.05       0.5        25         OUTLET    
S32              0.01       0.1        0.05       0.5        25         OUTLET    
S33              0.01       0.1        0.05       0.5        25         OUTLET    
S34              0.01       0.1        0.05       0.5        25         OUTLET    
S35              0.01       0.1        0.05       0.5        25         OUTLET    
S36              0.01       0.1        0.05       0.5        25         OUTLET    
S37              0.01       0.1        0.05       0.5        25         OUTLET    
S38              0.01       0.1        0.05       0.5        25         OUTLET    
S39              0.01       0.1        0.05       0.5        25         OUTLET    
S4               0.01       0.1        0.05       0.5        25         OUTLET    
S40              0.01       0.1        0.05       0.5        25         OUTLET    
S41              0.01       0.1        0.05       0.5        25         OUTLET    
S42              0.01       0.1        0.05       0.5        25         OUTLET    
S43              0.01       0.1        0.05       0.5        25         OUTLET    
S44              0.01       0.1        0.05       0.5        25         OUTLET    
S45              0.01       0.1        0.05       0.5        25         OUTLET    
S46              0.01       0.1        0.05       0.5        25         OUTLET    
S47              0.01       0.1        0.05       0.5        25         OUTLET    
S48              0.01       0.1        0.05       0.5        25         OUTLET    
S49              0.01       0.1        0.05       0.5        25         OUTLET    
S5               0.01       0.1        0.05       0.5        25         OUTLET    
S50              0.01       0.1        0.05       0.5        25         OUTLET    
S51              0.01       0.1        0.05       0.5        25         OUTLET    
S52              0.01       0.1        0.05       0.5        25         OUTLET    
S53              0.01       0.1        0.05       0.5        25         OUTLET    
S54              0.01       0.1        0.05       0.5        25         OUTLET    
S55              0.01       0.1        0.05       0.5        25         OUTLET    
S56              0.01       0.1        0.05       0.5        25         OUTLET    
S57              0.01       0.1        0.05       0.5        25         OUTLET    
S58              0.01       0.1        0.05       0.5        25         OUTLET    
S59              0.01       0.1        0.05       0.5        25         OUTLET    
S6               0.01       0.1        0.05       0.5        25         OUTLET    
S60              0.01       0.1        0.05       0.5        25         OUTLET    
S61              0.01       0.1        0.05       0.5        25         OUTLET    
S62              0.01       0.1        0.05       0.5        25         OUTLET    
S63              0.01       0.1        0.05       0.5        25         OUTLET    
S64              0.01       0.1        0.05       0.5        25         OUTLET    
S65              0.01       0.1        0.05       0.5        25         OUTLET    
S66              0.01       0.1        0.05       0.5        25         OUTLET    
S67              0.01       0.1        0.05       0.5        25         OUTLET    
S68              0.01       0.1        0.05       0.5        25         OUTLET    
S69              0.01       0.1        0.05       0.5        25         OUTLET    
S7               0.01       0.1        0.05       0.5        25         OUTLET    
S70              0.01       0.1        0.05       0.5        25         OUTLET    
S71              0.01       0.1        0.05       0.5        25         OUTLET    
S72              0.01       0.1        0.05       0.5        25         OUTLET    
S73              0.01       0.1        0.05       0.5        25         OUTLET    
S74              0.01       0.1        0.05       0.5        25         OUTLET    
S8               0.01       0.1        0.05       0.5        25         OUTLET    
S9               0.01       0.1        0.05       0.5        25         OUTLET    

[INFILTRATION]
;;Subcatchment   Param1     Param2     Param3     Param4     Param5    
;;-------------- ---------- ---------- ---------- ---------- ----------
S1               2.38       2.84       0.314      0          0         
S10              2.25       4.69       0.323      0          0         
S11              2.38       2.84       0.314      0          0         
S12              2.38       2.84       0.314      0          0         
S13              2.25       4.69       0.323      0          0         
S14              2.38       2.84       0.314      0          0         
S15              2.38       2.84       0.314      0          0         
S16              2.38       2.84       0.314      0          0         
S17              2.38       2.84       0.314      0          0         
S18              2.38       2.84       0.314      0          0         
S19              2.38       2.84       0.314      0          0         
S2               2.38       2.84       0.314      0          0         
S20              2.38       2.84       0.314      0          0         
S21              2.38       2.84       0.314      0          0         
S22              2.38       2.84       0.314      0          0         
S23              2.38       2.84       0.314      0          0         
S24              2.38       2.84       0.314      0          0         
S25              2.38       2.84       0.314      0          0         
S26              2.38       2.84       0.314      0          0         
S27              2.21       7          0.327      0          0         
S28              2.38       2.84       0.314      0          0         
S29              2.07       7.53       0.337      0          0         
S3               2.38       2.84       0.314      0          0         
S30              2.07       7.53       0.337      0          0         
S31              2.38       2.84       0.314      0          0         
S32              2.38       2.84       0.314      0          0         
S33              2.38       2.84       0.314      0          0         
S34              2.38       2.84       0.314      0          0         
S35              2.38       2.84       0.314      0          0         
S36              2.38       2.84       0.314      0          0         
S37              2.38       2.84       0.314      0          0         
S38              2.38       2.84       0.314      0          0         
S39              2.38       2.84       0.314      0          0         
S4               2.38       2.84       0.314      0          0         
S40              2.38       2.84       0.314      0          0         
S41              2.38       2.84       0.314      0          0         
S42              2.38       2.84       0.314      0          0         
S43              2.38       2.84       0.314      0          0         
S44              2.38       2.84       0.314      0          0         
S45              2.38       2.84       0.314      0          0         
S46              2.38       2.84       0.314      0          0         
S47              2.38       2.84       0.314      0          0         
S48              2.38       2.84       0.314      0          0         
S49              2.38       2.84       0.314      0          0         
S5               2.38       2.84       0.314      0          0         
S50              2.38       2.84       0.314      0          0         
S51              2.38       2.84       0.314      0          0         
S52              2.38       2.84       0.314      0          0         
S53              2.38       2.84       0.314      0          0         
S54              2.38       2.84       0.314      0          0         
S55              2.38       2.84       0.314      0          0         
S56              2.38       2.84       0.314      0          0         
S57              2.38       2.84       0.314      0          0         
S58              2.38       2.84       0.314      0          0         
S59              2.25       4.69       0.323      0          0         
S6               2.38       2.84       0.314      0          0         
S60              2.38       2.84       0.314      0          0         
S61              2.38       2.84       0.314      0          0         
S62              2.38       2.84       0.314      0          0         
S63              2.38       2.84       0.314      0          0         
S64              2.38       2.84       0.314      0          0         
S65              2.38       2.84       0.314      0          0         
S66              2.38       2.84       0.314      0          0         
S67              2.38       2.84       0.314      0          0         
S68              2.38       2.84       0.314      0          0         
S69              2.38       2.84       0.314      0          0         
S7               2.38       2.84       0.314      0          0         
S70              2.38       2.84       0.314      0          0         
S71              2.38       2.84       0.314      0          0         
S72              2.38       2.84       0.314      0          0         
S73              2.38       2.84       0.314      0          0         
S74              2.38       2.84       0.314      0          0         
S8               2.38       2.84       0.314      0          0         
S9               2.25       4.69       0.323      0          0         

[AQUIFERS]
;;Name           Por    WP     FC     Ksat   Kslope Tslope ETu    ETs    Seep   Ebot   Egw    Umc    ETupat 
;;-------------- ------ ------ ------ ------ ------ ------ ------ ------ ------ ------ ------ ------ ------
ST1              0.35   0.024  0.05   0.9    10.0   15.0   0.35   14.0   0.002  150    200    0.30         
ST2              0.35   0.024  0.05   0.9    10.0   15.0   0.35   14.0   0.002  171    225    0.30         
ST3              0.35   0.116  0.18   0.026  10.0   15.0   0.35   14.0   0.002  105    165    0.30         
ST4              0.35   0.116  0.18   0.026  10.0   15.0   0.35   14.0   0.002  60     105    0.30         
ST5              0.35   0.116  0.18   0.026  10.0   15.0   0.35   14.0   0.002  130    180    0.30         
ST6              0.35   0.04   0.1    0.5    10.0   15.0   0.35   14.0   0.002  10     52     0.30         

[GROUNDWATER]
;;Subcatchment   Aquifer          Node             Esurf  A1     B1     A2     B2     A3     Dsw    Egwt   Ebot   Wgr    Umc   
;;-------------- ---------------- ---------------- ------ ------ ------ ------ ------ ------ ------ ------ ------ ------ ------
S1               ST1              2042             247    0.952  3      0.015  1      0      0      *     
S10              ST3              202              185    0.952  3      0.015  1      0      0      *     
S11              ST6              856              65     0.952  3      0.015  1      0      0      *     
S12              ST4              1012             107    0.952  3      0.015  1      0      0      *     
S13              ST5              point7           195    0.952  3      0.015  1      0      0      *     
S14              ST6              886              120    0.952  3      0.015  1      0      0      *     
S15              ST1              584              245    0.952  3      0.015  1      0      0      *     
S16              ST1              228              240    0.952  3      0.015  1      0      0      *     
S17              ST6              480              193    0.952  3      0.015  1      0      0      *     
S18              ST2              132              238    0.952  3      0.015  1      0      0      *     
S19              ST6              1015             70     0.952  3      0.015  1      0      0      *     
S2               ST4              614              120    0.952  3      0.015  1      0      0      *     
S20              ST6              154              65     0.952  3      0.015  1      0      0      *     
S21              ST6              171              65     0.952  3      0.015  1      0      0      *     
S22              ST6              189              60     0.952  3      0.015  1      0      0      *     
S23              ST6              162              70     0.952  3      0.015  1      0      0      *     
S24              ST6              204              70     0.952  3      0.015  1      0      0      *     
S25              ST6              340              70     0.952  3      0.015  1      0      0      *     
S26              ST4              point9           138    0.952  3      0.015  1      0      0      *     
S27              ST4              point3           185    0.952  3      0.015  1      0      0      *     
S28              ST4              50000            105    0.952  3      0.015  1      0      0      *     
S29              ST5              98               200    0.952  3      0.015  1      0      0      *     
S3               ST6              point18          115    0.952  3      0.015  1      0      0      *     
S30              ST3              point34          180    0.952  3      0.015  1      0      0      *     
S31              ST3              734              180    0.952  3      0.015  1      0      0      *     
S32              ST1              692              205    0.952  3      0.015  1      0      0      *     
S33              ST1              682              240    0.952  3      0.015  1      0      0      *     
S34              ST6              767              150    0.952  3      0.015  1      0      0      *     
S35              ST6              802              132    0.952  3      0.015  1      0      0      *     
S36              ST6              2095             127    0.952  3      0.015  1      0      0      *     
S37              ST6              891              100    0.952  3      0.015  1      0      0      *     
S38              ST6              701              125    0.952  3      0.015  1      0      0      *     
S39              ST4              6010             180    0.952  3      0.015  1      0      0      *     
S4               ST6              543              185    0.952  3      0.015  1      0      0      *     
S40              ST4              30005            107    0.952  3      0.015  1      0      0      *     
S41              ST6              50004            75     0.952  3      0.015  1      0      0      *     
S42              ST6              339              70     0.952  3      0.015  1      0      0      *     
S43              ST6              341              70     0.952  3      0.015  1      0      0      *     
S44              ST6              WVS216B          60     0.952  3      0.015  1      0      0      *     
S45              ST6              836              150    0.952  3      0.015  1      0      0      *     
S46              ST6              11003            85     0.952  3      0.015  1      0      0      *     
S47              ST1              984              220    0.952  3      0.015  1      0      0      *     
S48              ST6              541              175    0.952  3      0.015  1      0      0      *     
S49              ST6              523              195    0.952  3      0.015  1      0      0      *     
S5               ST6              214              180    0.952  3      0.015  1      0      0      *     
S50              ST4              47               180    0.952  3      0.015  1      0      0      *     
S51              ST6              622              175    0.952  3      0.015  1      0      0      *     
S52              ST6              6002             155    0.952  3      0.015  1      0      0      *     
S53              ST1              2044             238    0.952  3      0.015  1      0      0      *     
S54              ST6              17               75     0.952  3      0.015  1      0      0      *     
S55              ST4              559              180    0.952  3      0.015  1      0      0      *     
S56              ST2              658              251    0.952  3      0.015  1      0      0      *     
S57              ST2              656              251    0.952  3      0.015  1      0      0      *     
S58              ST2              1007             247.5  0.952  3      0.015  1      0      0      *     
S59              ST3              741              176.5  0.952  3      0.015  1      0      0      *     
S6               ST1              966              247    0.952  3      0.015  1      0      0      *     
S60              ST6              905              160    0.952  3      0.015  1      0      0      *     
S61              ST6              906              135    0.952  3      0.015  1      0      0      *     
S62              ST6              J2               135    0.952  3      0.015  1      0      0      *     
S63              ST6              8072             125    0.952  3      0.015  1      0      0      *     
S64              ST6              8080             120    0.952  3      0.015  1      0      0      *     
S65              ST6              921              115    0.952  3      0.015  1      0      0      *     
S66              ST6              838              125    0.952  3      0.015  1      0      0      *     
S67              ST6              21               65     0.952  3      0.015  1      0      0      *     
S68              ST6              2094             135    0.952  3      0.015  1      0      0      *     
S69              ST6              848              145    0.952  3      0.015  1      0      0      *     