[TITLE]
;;Project Title/Notes

[OPTIONS]
;;Option             Value
FLOW_UNITS           CFS
INFILTRATION         CURVE_NUMBER
FLOW_ROUTING         KINWAVE
LINK_OFFSETS         DEPTH
MIN_SLOPE            0
ALLOW_PONDING        NO
SKIP_STEADY_STATE    NO

START_DATE           01/01/2019
START_TIME           00:00:00
REPORT_START_DATE    01/01/2019
REPORT_START_TIME    00:00:00
END_DATE             01/02/2019
END_TIME             00:00:00
SWEEP_START          01/01
SWEEP_END            01/02
DRY_DAYS             0
REPORT_STEP          00:15:00
WET_STEP             00:05:00
DRY_STEP             01:00:00
ROUTING_STEP         0:00:30 
RULE_STEP            00:00:00

INERTIAL_DAMPING     PARTIAL
NORMAL_FLOW_LIMITED  BOTH
FORCE_MAIN_EQUATION  H-W
VARIABLE_STEP        0.75
LENGTHENING_STEP     0
MIN_SURFAREA         12.566
MAX_TRIALS           8
HEAD_TOLERANCE       0.005
SYS_FLOW_TOL         5
LAT_FLOW_TOL         5
MINIMUM_STEP         0.5
THREADS              1

[EVAPORATION]
;;Data Source    Parameters
;;-------------- ----------------
TIMESERIES       Evaporation
DRY_ONLY         NO

[TEMPERATURE]
;;Data Element     Values     
TIMESERIES         Temperature
WINDSPEED MONTHLY  0.0 0.0 0.0 0.0 0.0 0.0 0.0 0.0 0.0 0.0 0.0 0.0
SNOWMELT           34 0.5 0.6 0.0 50.0 0.0
ADC IMPERVIOUS     1.0 1.0 1.0 1.0 1.0 1.0 1.0 1.0 1.0 1.0
ADC PERVIOUS       1.0 1.0 1.0 1.0 1.0 1.0 1.0 1.0 1.0 1.0

[RAINGAGES]
;;Name           Format    Interval SCF      Source    
;;-------------- --------- ------ ------ ----------
RainGage         VOLUME    1:00     1.0      TIMESERIES Rainfall        

[SUBCATCHMENTS]
;;Name           Rain Gage        Outlet           Area     %Imperv  Width    %Slope   CurbLen  SnowPack        
;;-------------- ---------------- ---------------- -------- -------- -------- -------- -------- ----------------
W150             RainGage         J49              274.27   49.47    2123.96  3.36     0                        
W160             RainGage         J41              648.42   43.69    2294.89  3.79     0                        
W180             RainGage         J41              202.6    59.8     1283.34  3.24     0                        
W170             RainGage         J44              483.91   55.52    2479.10  4.13     0                        
W240             RainGage         J38              333.37   47.44    1803.30  3.14     0                        
W260             RainGage         Outlet           222.37   55.66    1542.06  5.11     0                        

[SUBAREAS]
;;Subcatchment   N-Imperv   N-Perv     S-Imperv   S-Perv     PctZero    RouteTo    PctRouted 
;;-------------- ---------- ---------- ---------- ---------- ---------- ---------- ----------
W150             0.012      0.15       0.075      0.20       25         OUTLET    
W160             0.012      0.15       0.075      0.20       25         OUTLET    
W180             0.012      0.15       0.075      0.20       25         OUTLET    
W170             0.012      0.15       0.075      0.20       25         OUTLET    
W240             0.012      0.15       0.075      0.20       25         OUTLET    
W260             0.012      0.15       0.075      0.20       25         OUTLET    

[INFILTRATION]
;;Subcatchment   Param1     Param2     Param3     Param4     Param5    
;;-------------- ---------- ---------- ---------- ---------- ----------
W150             78.76      0.5        4          7          0         
W160             73.62      0.5        4          7          0         
W180             76.83      0.5        4          7          0         
W170             74.21      0.5        4          7          0         
W240             76.48      0.5        4          7          0         
W260             80.45      0.5        4          7          0         

[JUNCTIONS]
;;Name           Elevation  MaxDepth   InitDepth  SurDepth   Aponded   
;;-------------- ---------- ---------- ---------- ---------- ----------
J49              170        0          0          0          0         
J41              152        0          0          0          0         
J44              147        0          0          0          0         
J38              143        0          0          0          0         

[OUTFALLS]
;;Name           Elevation  Type       Stage Data       Gated    Route To        
;;-------------- ---------- ---------- ---------------- -------- ----------------
Outlet           140        FREE                        NO                       

[CONDUITS]
;;Name           From Node        To Node          Length     Roughness  InOffset   OutOffset  InitFlow   MaxFlow   
;;-------------- ---------------- ---------------- ---------- ---------- ---------- ---------- ---------- ----------
R30              J49              J41              10454.94   0.035      0          0          0          0         
R80              J41              J44              4122.96    0.035      0          0          0          0         
R110             J44              J38              4951.75    0.035      0          0          0          0         
R130             J38              Outlet           2220.95    0.035      0          0          0          0         

[XSECTIONS]
;;Link           Shape        Geom1            Geom2      Geom3      Geom4      Barrels    Culvert   
;;-------------- ------------ ---------------- ---------- ---------- ---------- ---------- ----------
R30              TRAPEZOIDAL  4.5              30         50         50         1                    
R80              TRAPEZOIDAL  5.5              30         50         50         1                    
R110             TRAPEZOIDAL  5                30         50         50         1                    
R130             TRAPEZOIDAL  6.5              30         50         50         1                    

[POLLUTANTS]
;;Name           Units  Crain      Cgw        Crdii      Kdecay     SnowOnly   Co-Pollutant     Co-Frac    Cdwf       Cinit     
;;-------------- ------ ---------- ---------- ---------- ---------- ---------- ---------------- ---------- ---------- ----------
Nitrogen         MG/L   0.0        0.0        0.0        0.0        NO         *                0.0        0.0        0.0       
Phosphorous      MG/L   0.0        0.0        0.0        0.0        NO         *                0.0        0.0        0.0       
TSS              MG/L   0.0        0.0        0.0        0.0        NO         *                0.0        0.0        0.0       

[LANDUSES]
;;               Sweeping   Fraction   Last      
;;Name           Interval   Available  Swept     
;;-------------- ---------- ---------- ----------
;NLCD 21+22
Residential      0          0          0         
Industrial       0          0          0         
Commercial       0          0          0         
Forest           0          0          0         
Grass-Pasture    0          0          0         
Agricultural     0          0          0         

[COVERAGES]
;;Subcatchment   Land Use         Percent   
;;-------------- ---------------- ----------
W150             Residential      64.2      
W150             Industrial       11.6      
W150             Commercial       4.5       
W150             Forest           12.6      
W150             Agricultural     7.2       
W160             Residential      65.4      
W160             Industrial       6.4       
W160             Commercial       0.6       
W160             Forest           22.0      
W160             Grass-Pasture    2.0       
W160             Agricultural     3.6       
W180             Residential      79.6      
W180             Industrial       9.8       
W180             Commercial       5.0       
W180             Forest           5.4       
W180             Agricultural     0.2       
W170             Residential      88.6      
W170             Industrial       3.5       
W170             Forest           5.7       
W170             Agricultural     2.3       
W240             Residential      70.2      
W240             Industrial       2.7       
W240             Commercial       0.2       
W240             Forest           20.3      
W240             Agricultural     6.5       
W260             Residential      78.4      
W260             Industrial       8.9       
W260             Commercial       0.3       
W260             Forest           11.0      
W260             Agricultural     1.4       

[LOADINGS]
;;Subcatchment   Pollutant        Buildup   
;;-------------- ---------------- ----------

[BUILDUP]
;;Land Use       Pollutant        Function   Coeff1     Coeff2     Coeff3     Per Unit  
;;-------------- ---------------- ---------- ---------- ---------- ---------- ----------
Residential      Nitrogen         NONE       0.0        0.0        0.0        AREA      
Residential      Phosphorous      NONE       0.0        0.0        0.0        AREA      
Residential      TSS              NONE       0.0        0.0        0.0        AREA      
Industrial       Nitrogen         NONE       0.0        0.0        0.0        AREA      
Industrial       Phosphorous      NONE       0.0        0.0        0.0        AREA      
Industrial       TSS              NONE       0.0        0.0        0.0        AREA      
Commercial       Nitrogen         NONE       0.0        0.0        0.0        AREA      
Commercial       Phosphorous      NONE       0.0        0.0        0.0        AREA      
Commercial       TSS              NONE       0.0        0.0        0.0        AREA      
Forest           Nitrogen         NONE       0.0        0.0        0.0        AREA      
Forest           Phosphorous      NONE       0.0        0.0        0.0        AREA      
Forest           TSS              NONE       0.0        0.0        0.0        AREA      
Grass-Pasture    Nitrogen         NONE       0.0        0.0        0.0        AREA      
Grass-Pasture    Phosphorous      NONE       0.0        0.0        0.0        AREA      
Grass-Pasture    TSS              NONE       0.0        0.0        0.0        AREA      
Agricultural     Nitrogen         NONE       0.0        0.0        0.0        AREA      
Agricultural     Phosphorous      NONE       0.0        0.0        0.0        AREA      
Agricultural     TSS              NONE       0.0        0.0        0.0        AREA      

[WASHOFF]
;;Land Use       Pollutant        Function   Coeff1     Coeff2     SweepRmvl  BmpRmvl   
;;-------------- ---------------- ---------- ---------- ---------- ---------- ----------
Residential      Nitrogen         EMC        1.82       0.0        0.0        0.0       
Residential      Phosphorous      EMC        0.57       0.0        0.0        0.0       
Residential      TSS              EMC        41         0.0        0.0        0.0       
Industrial       Nitrogen         EMC        1.26       0.0        0.0        0.0       
Industrial       Phosphorous      EMC        0.28       0.0        0.0        0.0       
Industrial       TSS              EMC        60.5       0.0        0.0        0.0       
Commercial       Nitrogen         EMC        1.34       0.0        0.0        0.0       
Commercial       Phosphorous      EMC        0.32       0.0        0.0        0.0       
Commercial       TSS              EMC        55.5       0.0        0.0        0.0       
Forest           Nitrogen         EMC        0.7        0.0        0.0        0.0       
Forest           Phosphorous      EMC        0.01       0.0        0.0        0.0       
Forest           TSS              EMC        1          0.0        0.0        0.0       
Grass-Pasture    Nitrogen         EMC        0.7        0.0        0.0        0.0       
Grass-Pasture    Phosphorous      EMC        0.01       0.0        0.0        0.0       
Grass-Pasture    TSS              EMC        1          0.0        0.0        0.0       
Agricultural     Nitrogen         EMC        4.4        0.0        0.0        0.0       
Agricultural     Phosphorous      EMC        1.3        0.0        0.0        0.0       
Agricultural     TSS              EMC        107        0.0        0.0        0.0       

[TIMESERIES]
;;Name           Date       Time       Value     
;;-------------- ---------- ---------- ----------
;24-hr 100-yr Design Storm (SCS Type 3)
Rainfall         1/1/2019   01:00      0.08      
Rainfall         1/1/2019   02:00      0.08      
Rainfall         1/1/2019   03:00      0.09      
Rainfall         1/1/2019   04:00      0.10      
Rainfall         1/1/2019   05:00      0.11      
Rainfall         1/1/2019   06:00      0.13      
Rainfall         1/1/2019   07:00      0.15      
Rainfall         1/1/2019   08:00      0.20      
Rainfall         1/1/2019   09:00      0.27      
Rainfall         1/1/2019   10:00      0.36      
Rainfall         1/1/2019   11:00      0.51      
Rainfall         1/1/2019   12:00      2.09      
Rainfall         1/1/2019   13:00      2.09      
Rainfall         1/1/2019   14:00      0.51      
Rainfall         1/1/2019   15:00      0.36      
Rainfall         1/1/2019   16:00      0.26      
Rainfall         1/1/2019   17:00      0.20      
Rainfall         1/1/2019   18:00      0.15      
Rainfall         1/1/2019   19:00      0.13      
Rainfall         1/1/2019   20:00      0.11      
Rainfall         1/1/2019   21:00      0.10      
Rainfall         1/1/2019   22:00      0.10      
Rainfall         1/1/2019   23:00      0.08      
Rainfall         1/1/2019   24:00      0.08      
;
;Potential Evaporation from HEC-HMS
Evaporation      1/1/2019   01:00      0.00      
Evaporation      1/1/2019   02:00      0.00      
Evaporation      1/1/2019   03:00      0.00      
Evaporation      1/1/2019   04:00      0.00      
Evaporation      1/1/2019   05:00      0.00      
Evaporation      1/1/2019   06:00      0.00      
Evaporation      1/1/2019   07:00      0.00      
Evaporation      1/1/2019   08:00      0.00      
Evaporation      1/1/2019   09:00      0.00      
Evaporation      1/1/2019   10:00      0.01      
Evaporation      1/1/2019   11:00      0.01      
Evaporation      1/1/2019   12:00      0.01      
Evaporation      1/1/2019   13:00      0.01      
Evaporation      1/1/2019   14:00      0.01      
Evaporation      1/1/2019   15:00      0.01      
Evaporation      1/1/2019   16:00      0.00      
Evaporation      1/1/2019   17:00      0.00      
Evaporation      1/1/2019   18:00      0.00      
Evaporation      1/1/2019   19:00      0.00      
Evaporation      1/1/2019   20:00      0.00      
Evaporation      1/1/2019   21:00      0.00      
Evaporation      1/1/2019   22:00      0.00      
Evaporation      1/1/2019   23:00      0.00      
Evaporation      1/1/2019   24:00      0.00      
;
Temperature      1/1/2019   01:00      53.8      
Temperature      1/1/2019   02:00      53.3      
Temperature      1/1/2019   03:00      52.9      
Temperature      1/1/2019   04:00      52.4      
Temperature      1/1/2019   05:00      51.9      
Temperature      1/1/2019   06:00      51.5      
Temperature      1/1/2019   07:00      51.0      
Temperature      1/1/2019   08:00      50.6      
Temperature      1/1/2019   09:00      50.1      
Temperature      1/1/2019   10:00      49.6      
Temperature      1/1/2019   11:00      49.2      
Temperature      1/1/2019   12:00      48.7      
Temperature      1/1/2019   13:00      48.3      
Temperature      1/1/2019   14:00      47.8      
Temperature      1/1/2019   15:00      47.4      
Temperature      1/1/2019   16:00      46.9      
Temperature      1/1/2019   17:00      46.4      
Temperature      1/1/2019   18:00      46.0      
Temperature      1/1/2019   19:00      45.5      
Temperature      1/1/2019   20:00      45.1      
Temperature      1/1/2019   21:00      44.6      
Temperature      1/1/2019   22:00      44.1      
Temperature      1/1/2019   23:00      43.7      
Temperature      1/1/2019   24:00      43.2      

[REPORT]
;;Reporting Options
SUBCATCHMENTS ALL
NODES ALL
LINKS ALL

[TAGS]

[MAP]
DIMENSIONS 340593.242 4357447.985 350224.094 4362402.318
Units      Feet

[COORDINATES]
;;Node           X-Coord            Y-Coord           
;;-------------- ------------------ ------------------
J49              343511.959         4360933.975       
J41              345810.943         4359753.692       
J44              346908.729         4359558.430       
J38              347823.411         4358809.518       
Outlet           348214.945         4358385.713       

[VERTICES]
;;Link           X-Coord            Y-Coord           
;;-------------- ------------------ ------------------
R30              343960.957         4360874.318       
R30              344192.215         4360735.985       
R30              344332.739         4360515.830       
R30              344707.471         4360478.356       
R30              344987.286         4360575.106       
R30              345485.040         4360333.148       
R30              345616.196         4360009.941       
R80              346252.062         4359543.557       
R80              346544.738         4359589.287       
R110             347283.753         4359368.213       
R110             347897.377         4359096.532       
R110             347878.640         4358951.324       

[Polygons]
;;Subcatchment   X-Coord            Y-Coord           
;;-------------- ------------------ ------------------
W150             342338.025         4361098.357       
W150             342360.278         4361069.258       
W150             342382.530         4361057.276       
W150             342423.612         4361053.852       
W150             342459.558         4361031.600       
W150             342468.117         4361009.347       
W150             342507.486         4360997.365       
W150             342560.550         4360963.131       
W150             342594.784         4360910.067       
W150             342606.766         4360846.733       
W150             342606.766         4360790.246       
W150             342613.613         4360752.588       
W150             342668.389         4360702.948       
W150             342704.335         4360687.543       
W150             342692.353         4360655.020       
W150             342707.758         4360600.244       
W150             342755.687         4360554.028       
W150             342807.039         4360511.235       
W150             342834.426         4360511.235       
W150             342887.490         4360542.046       
W150             342949.112         4360543.757       
W150             343015.869         4360523.217       
W150             343070.645         4360490.694       
W150             343099.744         4360447.901       
W150             343187.042         4360483.847       
W150             343246.952         4360497.541       
W150             343331.368         4360499.415       
W150             343374.573         4360539.739       
W150             343396.175         4360603.105       
W150             343397.615         4360660.711       
W150             343368.812         4360708.236       
W150             343378.893         4360800.405       
W150             343388.974         4360870.971       
W150             343442.259         4360930.017       
W150             343512.826         4360970.341       
W150             343535.868         4361062.510       
W150             343572.181         4361072.681       
W150             343588.759         4361188.160       
W150             343607.875         4361262.690       
W150             343618.397         4361305.476       
W150             343640.999         4361421.105       
W150             343649.208         4361449.261       
W150             343585.875         4361546.830       
W150             343507.135         4361613.587       
W150             343436.954         4361617.011       
W150             343361.638         4361635.840       
W150             343226.412         4361646.110       
W150             343161.366         4361716.291       
W150             343121.996         4361729.985       
W150             343106.591         4361767.643       
W150             343022.716         4361841.247       
W150             342981.635         4361810.436       
W150             342947.400         4361743.678       
W150             342820.732         4361735.120       
W150             342688.929         4361694.038       
W150             342589.649         4361724.849       
W150             342591.361         4361712.867       
W150             342651.271         4361664.939       
W150             342712.894         4361572.506       
W150             342750.552         4361553.677       
W150             342745.416         4361433.856       
W150             342702.623         4361401.333       
W150             342632.442         4361401.333       
W150             342558.838         4361353.405       
W150             342481.810         4361334.576       
W150             342468.117         4361281.512       
W150             342341.449         4361177.097       
W150             342260.997         4361154.844       
W160             343652.520         4361412.464       
W160             343635.238         4361346.218       
W160             343632.358         4361271.330       
W160             343615.076         4361252.609       
W160             343612.196         4361173.401       
W160             343589.154         4361156.119       
W160             343584.833         4361081.232       
W160             343545.949         4361056.750       
W160             343540.189         4360980.422       
W160             343443.699         4360915.616       
W160             343419.217         4360878.172       
W160             343394.735         4360850.809       
W160             343381.773         4360758.640       
W160             343383.213         4360693.834       
W160             343409.136         4360677.993       
W160             343412.016         4360627.588       
W160             343396.175         4360575.743       
W160             343390.414         4360541.179       
W160             343363.052         4360510.936       
W160             343341.449         4360495.095       
W160             343356.571         4360470.612       
W160             343410.576         4360412.287       
W160             343473.222         4360362.602       
W160             343529.388         4360278.354       
W160             343574.752         4360254.591       
W160             343626.597         4360094.736       
W160             343654.680         4360066.653       
W160             343723.807         4360012.648       
W160             343797.254         4360006.167       
W160             343866.381         4359971.604       
W160             343892.303         4359893.836       
W160             343980.872         4359960.803       
W160             344049.998         4359956.482       
W160             344119.125         4359930.560       
W160             344177.451         4359917.598       
W160             344218.495         4359932.720       
W160             344259.539         4359932.720       
W160             344315.704         4359962.963       
W160             344330.826         4360036.410       
W160             344449.637         4360047.211       
W160             344479.880         4360068.813       
W160             344477.720         4360140.100       
W160             344490.681         4360153.061       
W160             344650.537         4360181.144       
W160             344717.504         4360250.271       
W160             344747.746         4360228.669       
W160             344790.951         4360217.868       
W160             344857.917         4360254.591       
W160             344903.282         4360230.829       
W160             345037.215         4360183.304       
W160             345114.982         4360120.658       
W160             345216.512         4360058.012       
W160             345264.037         4360014.808       
W160             345302.921         4359945.681       
W160             345363.407         4359924.079       
W160             345423.892         4359902.477       
W160             345544.864         4359893.836       
W160             345629.112         4359874.394       
W160             345704.720         4359826.870       
W160             345758.725         4359781.505       
W160             345842.973         4359841.991       
W160             345927.221         4359854.952       
W160             345946.663         4359891.676       
W160             345929.382         4360004.007       
W160             345905.619         4360083.935       
W160             345907.780         4360178.984       
W160             345933.702         4360248.111       
W160             345961.785         4360317.237       
W160             345972.586         4360401.486       
W160             346000.669         4360481.413       
W160             346048.193         4360595.905       
W160             346095.718         4360604.545       
W160             346104.359         4360660.711       
W160             346097.878         4360729.838       
W160             346015.790         4360725.517       
W160             345916.420         4360701.755       
W160             345855.935         4360725.517       
W160             345763.045         4360809.765       
W160             345741.443         4360798.964       
W160             345646.394         4360868.091       
W160             345549.185         4360809.765       
W160             345469.257         4360801.125       
W160             345369.887         4360805.445       
W160             345289.959         4360865.931       
W160             345147.385         4360958.820       
W160             345093.380         4360973.941       
W160             344950.806         4360980.422       
W160             344827.674         4361058.190       
W160             344784.470         4361053.869       
W160             344594.372         4361112.195       
W160             344451.798         4361092.753       
W160             344371.870         4361183.482       
W160             344205.534         4361239.647       
W160             344095.363         4361345.498       
W160             343929.027         4361354.139       
W160             343844.778         4361382.221       
W160             343664.041         4361429.746       
W180             343903.013         4359859.953       
W180             343946.930         4359846.440       
W180             343968.888         4359832.927       
W180             344004.359         4359799.146       
W180             344029.695         4359755.229       
W180             344048.275         4359736.649       
W180             344098.948         4359738.338       
W180             344191.848         4359726.515       
W180             344262.789         4359711.313       
W180             344315.151         4359667.397       
W180             344350.622         4359665.707       
W180             344423.253         4359625.169       
W180             344451.967         4359620.102       
W180             344485.749         4359633.615       
W180             344558.380         4359635.304       
W180             344566.826         4359667.397       
W180             344745.869         4359645.438       
W180             344784.718         4359591.388       
W180             344818.500         4359539.026       
W180             344906.333         4359496.799       
W180             344924.913         4359471.462       
W180             344911.400         4359434.302       
W180             344914.778         4359392.075       
W180             344933.358         4359309.310       
W180             344953.627         4359285.662       
W180             345031.325         4359255.259       
W180             345095.511         4359256.948       
W180             345117.469         4359248.502       
W180             345171.520         4359314.377       
W180             345178.276         4359353.226       
W180             345208.680         4359415.722       
W180             345218.814         4359461.328       
W180             345242.461         4359473.151       
W180             345299.891         4359484.975       
W180             345409.681         4359501.866       
W180             345485.690         4359518.757       
W180             345484.001         4359588.009       
W180             345465.421         4359618.413       
W180             345465.421         4359679.220       
W180             345478.934         4359696.111       
W180             345595.481         4359718.069       
W180             345706.961         4359734.960       
W180             345733.987         4359773.809       
W180             345722.163         4359789.011       
W180             345668.112         4359832.927       
W180             345624.196         4359875.155       
W180             345573.523         4359881.911       
W180             345485.690         4359892.046       
W180             345424.883         4359890.356       
W180             345396.169         4359893.735       
W180             345335.361         4359922.449       
W180             345301.580         4359929.206       
W180             345269.487         4359988.324       
W180             345254.285         4360015.349       
W180             345196.856         4360055.887       
W180             345107.334         4360113.316       
W180             345034.703         4360172.434       
W180             345004.300         4360185.947       
W180             344884.374         4360224.796       
W180             344857.349         4360241.687       
W180             344781.340         4360212.973       
W180             344749.247         4360216.351       
W180             344718.844         4360233.242       
W180             344654.658         4360177.502       